<?xml version="1.0" encoding="UTF-8"?>

<!-- generated on 2024-02-05 18:49:23.223512 by osmWebWizard.py v1_19_0+0753-9f595940624
<configuration>
    <net-file value="/sumo/tools/2024-02-05-18-49-19/osm.net.xml.gz"/>
    <output-trip-file value="/sumo/tools/2024-02-05-18-49-19/osm.passenger.trips.xml"/>
    <route-file value="/sumo/tools/2024-02-05-18-49-19/osm.passenger.rou.xml"/>
    <prefix value="veh"/>
    <trip-attributes value="departLane=&quot;best&quot;"/>
    <fringe-start-attributes value="departSpeed=&quot;max&quot;"/>
    <vehicle-class value="passenger"/>
    <lanes value="True"/>
    <fringe-factor value="5"/>
    <allow-fringe.min-length value="1000.0"/>
    <via-edge-types value="highway.motorway,highway.motorway_link,highway.trunk_link,highway.primary_link,highway.secondary_link,highway.tertiary_link"/>
    <min-distance value="300.0"/>
    <min-distance.fringe value="10.0"/>
    <remove-loops value="True"/>
    <validate value="True"/>
    <insertion-density value="12.0"/>
</configuration>
-->

<!-- generated on 2024-02-05 18:49:23 by Eclipse SUMO duarouter Version v1_19_0+0753-9f595940624
<configuration xmlns:xsi="http://www.w3.org/2001/XMLSchema-instance" xsi:noNamespaceSchemaLocation="http://sumo.dlr.de/xsd/duarouterConfiguration.xsd">

    <input>
        <net-file value="/sumo/tools/2024-02-05-18-49-19/osm.net.xml.gz"/>
        <route-files value="/sumo/tools/2024-02-05-18-49-19/osm.passenger.trips.xml"/>
    </input>

    <output>
        <output-file value="/sumo/tools/2024-02-05-18-49-19/osm.passenger.trips.xml.tmp"/>
        <alternatives-output value="NUL"/>
        <write-trips value="true"/>
    </output>

    <processing>
        <remove-loops value="true"/>
    </processing>

    <time>
        <begin value="0.0"/>
        <end value="3600.0"/>
    </time>

    <report>
        <no-warnings value="true"/>
        <ignore-errors value="true"/>
        <no-step-log value="true"/>
    </report>

</configuration>
-->

<routes xmlns:xsi="http://www.w3.org/2001/XMLSchema-instance" xsi:noNamespaceSchemaLocation="http://sumo.dlr.de/xsd/routes_file.xsd">
    <vType id="veh_passenger" vClass="passenger"/>
    <trip id="veh1" type="veh_passenger" depart="7.89" departLane="best" departSpeed="max" from="-31265883#2" to="-24496221#4"/>
    <trip id="veh2" type="veh_passenger" depart="15.79" departLane="best" departSpeed="max" from="24496169" to="24496192#3"/>
    <trip id="veh4" type="veh_passenger" depart="31.57" departLane="best" from="-24496221#8" to="1017430416#0"/>
    <trip id="veh6" type="veh_passenger" depart="47.36" departLane="best" from="-24496221#9" to="235968152"/>
    <trip id="veh8" type="veh_passenger" depart="63.14" departLane="best" departSpeed="max" from="-53478658#1" to="-124847280#0"/>
    <trip id="veh9" type="veh_passenger" depart="71.03" departLane="best" departSpeed="max" from="-124847237" to="-1017426837"/>
    <trip id="veh12" type="veh_passenger" depart="94.71" departLane="best" from="24235715" to="-100289829"/>
    <trip id="veh13" type="veh_passenger" depart="102.60" departLane="best" from="-24962020#3" to="53478596#1"/>
    <trip id="veh14" type="veh_passenger" depart="110.50" departLane="best" from="-100289894#1" to="-24962020#2"/>
    <trip id="veh15" type="veh_passenger" depart="118.39" departLane="best" departSpeed="max" from="-124847242" to="530534025#1"/>
    <trip id="veh20" type="veh_passenger" depart="157.85" departLane="best" from="24037248" to="-24962020#0"/>
    <trip id="veh22" type="veh_passenger" depart="173.64" departLane="best" departSpeed="max" from="76842202#0" to="24235717#1"/>
    <trip id="veh23" type="veh_passenger" depart="181.53" departLane="best" departSpeed="max" from="1017426837" to="24496195#1"/>
    <trip id="veh24" type="veh_passenger" depart="189.42" departLane="best" departSpeed="max" from="27012216" to="27936471#0"/>
    <trip id="veh28" type="veh_passenger" depart="220.99" departLane="best" from="237460520" to="100289779#5"/>
    <trip id="veh29" type="veh_passenger" depart="228.88" departLane="best" from="53478608" to="-100289880#1"/>
    <trip id="veh30" type="veh_passenger" depart="236.78" departLane="best" departSpeed="max" from="-288069074" to="-25661068"/>
    <trip id="veh31" type="veh_passenger" depart="244.67" departLane="best" from="1017430414" to="288069073#2"/>
    <trip id="veh34" type="veh_passenger" depart="268.35" departLane="best" from="829324433#2" to="124847237"/>
    <trip id="veh35" type="veh_passenger" depart="276.24" departLane="best" departSpeed="max" from="-124847237" to="-100289830#0"/>
    <trip id="veh36" type="veh_passenger" depart="284.13" departLane="best" departSpeed="max" from="-124847247" to="24235713#0"/>
    <trip id="veh37" type="veh_passenger" depart="292.02" departLane="best" departSpeed="max" from="24510986#0" to="100289823"/>
    <trip id="veh38" type="veh_passenger" depart="299.92" departLane="best" from="-100289887#1" to="-100289774#0"/>
    <trip id="veh39" type="veh_passenger" depart="307.81" departLane="best" from="829324433#1" to="124847247"/>
    <trip id="veh41" type="veh_passenger" depart="323.60" departLane="best" from="24037263#1" to="124847257"/>
    <trip id="veh44" type="veh_passenger" depart="347.27" departLane="best" from="529197386#1" to="288069073#2"/>
    <trip id="veh46" type="veh_passenger" depart="363.06" departLane="best" from="53478596#5" to="53478584#5"/>
    <trip id="veh47" type="veh_passenger" depart="370.95" departLane="best" from="-53478584#1" to="-24235717#1"/>
    <trip id="veh49" type="veh_passenger" depart="386.74" departLane="best" from="24496216" to="124847260#0"/>
    <trip id="veh51" type="veh_passenger" depart="402.52" departLane="best" from="-100289780" to="53478731#2"/>
    <trip id="veh52" type="veh_passenger" depart="410.41" departLane="best" departSpeed="max" from="-53478584#5" to="-100289866#0"/>
    <trip id="veh55" type="veh_passenger" depart="434.09" departLane="best" departSpeed="max" from="24496219" to="-124847241"/>
    <trip id="veh56" type="veh_passenger" depart="441.98" departLane="best" from="100289802#1" to="124847263#1"/>
    <trip id="veh57" type="veh_passenger" depart="449.88" departLane="best" departSpeed="max" from="-288069074" to="53478584#5"/>
    <trip id="veh59" type="veh_passenger" depart="465.66" departLane="best" from="-100289893#1" to="24962020#2"/>
    <trip id="veh61" type="veh_passenger" depart="481.45" departLane="best" from="829324432#1" to="24235723#0"/>
    <trip id="veh62" type="veh_passenger" depart="489.34" departLane="best" departSpeed="max" from="100289777" to="124847240"/>
    <trip id="veh63" type="veh_passenger" depart="497.23" departLane="best" departSpeed="max" from="-124847260#1" to="24496221#5"/>
    <trip id="veh64" type="veh_passenger" depart="505.12" departLane="best" departSpeed="max" from="-53478658#1" to="235968152"/>
    <trip id="veh65" type="veh_passenger" depart="513.02" departLane="best" departSpeed="max" from="-100289887#4" to="24235714#0"/>
    <trip id="veh66" type="veh_passenger" depart="520.91" departLane="best" from="-288069073#2" to="-100289880#0"/>
    <trip id="veh68" type="veh_passenger" depart="536.69" departLane="best" from="-24496221#2" to="-124847241"/>
    <trip id="veh70" type="veh_passenger" depart="552.48" departLane="best" departSpeed="max" from="100289802#0" to="27936471#2"/>
    <trip id="veh72" type="veh_passenger" depart="568.26" departLane="best" from="24235732#1" to="24496192#1"/>
    <trip id="veh74" type="veh_passenger" depart="584.05" departLane="best" from="-59863103#0" to="-59863100"/>
    <trip id="veh75" type="veh_passenger" depart="591.94" departLane="best" from="-288069073#4" to="-25661068"/>
    <trip id="veh76" type="veh_passenger" depart="599.83" departLane="best" departSpeed="max" from="-24235724#7" to="100289874#2"/>
    <trip id="veh77" type="veh_passenger" depart="607.73" departLane="best" from="100289771" to="530534025#1"/>
    <trip id="veh78" type="veh_passenger" depart="615.62" departLane="best" departSpeed="max" from="100289777" to="53478360#2"/>
    <trip id="veh79" type="veh_passenger" depart="623.51" departLane="best" from="665481282#1" to="529197387#2"/>
    <trip id="veh81" type="veh_passenger" depart="639.30" departLane="best" from="273005768#0" to="124847280#4"/>
    <trip id="veh82" type="veh_passenger" depart="647.19" departLane="best" from="100289823" to="24496199#4"/>
    <trip id="veh87" type="veh_passenger" depart="686.65" departLane="best" departSpeed="max" from="1017426837" to="24496222"/>
    <trip id="veh88" type="veh_passenger" depart="694.55" departLane="best" from="-124847280#6" to="-53478608"/>
    <trip id="veh89" type="veh_passenger" depart="702.44" departLane="best" from="100289894#1" to="25661063#1"/>
    <trip id="veh90" type="veh_passenger" depart="710.33" departLane="best" from="100289880#0" to="235968152"/>
    <trip id="veh91" type="veh_passenger" depart="718.22" departLane="best" from="100289850" to="530534025#3"/>
    <trip id="veh93" type="veh_passenger" depart="734.01" departLane="best" from="-254765923#1" to="-115090421"/>
    <trip id="veh94" type="veh_passenger" depart="741.90" departLane="best" from="530526777#2" to="-25661068"/>
    <trip id="veh95" type="veh_passenger" depart="749.79" departLane="best" from="124847240" to="24037268#0"/>
    <trip id="veh97" type="veh_passenger" depart="765.58" departLane="best" from="100289880#1" to="53478740"/>
    <trip id="veh98" type="veh_passenger" depart="773.47" departLane="best" from="24496221#1" to="24496221#7"/>
    <trip id="veh100" type="veh_passenger" depart="789.26" departLane="best" from="24037254#2" to="-53478658#0"/>
    <trip id="veh101" type="veh_passenger" depart="797.15" departLane="best" from="-53478596#4" to="25661063#3"/>
    <trip id="veh102" type="veh_passenger" depart="805.04" departLane="best" departSpeed="max" from="-100289887#4" to="100289880#0"/>
    <trip id="veh103" type="veh_passenger" depart="812.93" departLane="best" departSpeed="max" from="-100289887#4" to="24496199#4"/>
    <trip id="veh105" type="veh_passenger" depart="828.72" departLane="best" from="529197387#4" to="53478596#1"/>
    <trip id="veh106" type="veh_passenger" depart="836.61" departLane="best" departSpeed="max" from="-53478740" to="-124847280#0"/>
    <trip id="veh107" type="veh_passenger" depart="844.50" departLane="best" departSpeed="max" from="260074350" to="24496221#11"/>
    <trip id="veh108" type="veh_passenger" depart="852.40" departLane="best" from="124847263#0" to="829324432#0"/>
    <trip id="veh110" type="veh_passenger" depart="868.18" departLane="best" departSpeed="max" from="25661068" to="-53478658#0"/>
    <trip id="veh112" type="veh_passenger" depart="883.97" departLane="best" departSpeed="max" from="-124847247" to="124847263#1"/>
    <trip id="veh113" type="veh_passenger" depart="891.86" departLane="best" departSpeed="max" from="-31265883#2" to="24037257#1"/>
    <trip id="veh114" type="veh_passenger" depart="899.75" departLane="best" from="124847280#3" to="288069073#4"/>
    <trip id="veh115" type="veh_passenger" depart="907.64" departLane="best" from="100289827" to="53478658#1"/>
    <trip id="veh116" type="veh_passenger" depart="915.54" departLane="best" departSpeed="max" from="27012216" to="100289894#6"/>
    <trip id="veh118" type="veh_passenger" depart="931.32" departLane="best" from="100289765#2" to="273005768#0"/>
    <trip id="veh119" type="veh_passenger" depart="939.22" departLane="best" from="124847280#5" to="288069073#1"/>
    <trip id="veh121" type="veh_passenger" depart="955.00" departLane="best" from="-100289893#0" to="53478596#4"/>
    <trip id="veh122" type="veh_passenger" depart="962.89" departLane="best" from="53478584#2" to="124847260#1"/>
    <trip id="veh124" type="veh_passenger" depart="978.68" departLane="best" from="124847280#1" to="-124847241"/>
    <trip id="veh125" type="veh_passenger" depart="986.57" departLane="best" departSpeed="max" from="-53478584#5" to="53478628"/>
    <trip id="veh126" type="veh_passenger" depart="994.46" departLane="best" departSpeed="max" from="24510986#0" to="53478360#2"/>
    <trip id="veh127" type="veh_passenger" depart="1002.36" departLane="best" from="53478381#1" to="24235724#6"/>
    <trip id="veh128" type="veh_passenger" depart="1010.25" departLane="best" from="-288069073#2" to="-1095740302"/>
    <trip id="veh130" type="veh_passenger" depart="1026.03" departLane="best" from="-124847280#6" to="53478731#2"/>
    <trip id="veh131" type="veh_passenger" depart="1033.93" departLane="best" from="31024244#0" to="665481281#0"/>
    <trip id="veh132" type="veh_passenger" depart="1041.82" departLane="best" from="25661062#1" to="53478596#2"/>
    <trip id="veh134" type="veh_passenger" depart="1057.60" departLane="best" departSpeed="max" from="-53478628" to="53478731#2"/>
    <trip id="veh137" type="veh_passenger" depart="1081.28" departLane="best" from="47160361#2" to="530534025#3"/>
    <trip id="veh138" type="veh_passenger" depart="1089.17" departLane="best" from="-24510983#0" to="31024244#0"/>
    <trip id="veh139" type="veh_passenger" depart="1097.07" departLane="best" from="100289784#0" to="53478731#1"/>
    <trip id="veh140" type="veh_passenger" depart="1104.96" departLane="best" departSpeed="max" from="24510986#0" to="24496221#9"/>
    <trip id="veh141" type="veh_passenger" depart="1112.85" departLane="best" from="-100289793" to="-24037248"/>
    <trip id="veh142" type="veh_passenger" depart="1120.74" departLane="best" departSpeed="max" from="-53478628" to="-53478381#1"/>
    <trip id="veh145" type="veh_passenger" depart="1144.42" departLane="best" from="665481282#1" to="124847257"/>
    <trip id="veh146" type="veh_passenger" depart="1152.31" departLane="best" departSpeed="max" from="-124847247" to="100289836"/>
    <trip id="veh149" type="veh_passenger" depart="1175.99" departLane="best" departSpeed="max" from="-288069073#5" to="24496221#11"/>
    <trip id="veh150" type="veh_passenger" depart="1183.88" departLane="best" from="-100289765#1" to="53478731#2"/>
    <trip id="veh151" type="veh_passenger" depart="1191.78" departLane="best" from="100289893#0" to="24235715"/>
    <trip id="veh152" type="veh_passenger" depart="1199.67" departLane="best" departSpeed="max" from="-53478740" to="-100289874#2"/>
    <trip id="veh153" type="veh_passenger" depart="1207.56" departLane="best" from="-53478596#3" to="530526777#2"/>
    <trip id="veh154" type="veh_passenger" depart="1215.45" departLane="best" from="24235723#0" to="-53478658#0"/>
    <trip id="veh155" type="veh_passenger" depart="1223.35" departLane="best" from="-53478596#0" to="100289797#0"/>
    <trip id="veh157" type="veh_passenger" depart="1239.13" departLane="best" from="-124847263#0" to="100289818"/>
    <trip id="veh158" type="veh_passenger" depart="1247.03" departLane="best" from="53478584#2" to="24037264#1"/>
    <trip id="veh159" type="veh_passenger" depart="1254.92" departLane="best" from="-53478584#4" to="124847263#0"/>
    <trip id="veh161" type="veh_passenger" depart="1270.70" departLane="best" departSpeed="max" from="100289777" to="24496199#4"/>
    <trip id="veh162" type="veh_passenger" depart="1278.60" departLane="best" departSpeed="max" from="100289802#0" to="53478628"/>
    <trip id="veh164" type="veh_passenger" depart="1294.38" departLane="best" from="-100289894#6" to="124847237"/>
    <trip id="veh166" type="veh_passenger" depart="1310.17" departLane="best" departSpeed="max" from="25661068" to="25661063#2"/>
    <trip id="veh167" type="veh_passenger" depart="1318.06" departLane="best" from="24037257#0" to="24496221#5"/>
    <trip id="veh168" type="veh_passenger" depart="1325.95" departLane="best" from="-24496199#4" to="100289779#5"/>
    <trip id="veh170" type="veh_passenger" depart="1341.74" departLane="best" from="273005768#1" to="-100289880#1"/>
    <trip id="veh171" type="veh_passenger" depart="1349.63" departLane="best" from="100289763#3" to="24235713#2"/>
    <trip id="veh172" type="veh_passenger" depart="1357.52" departLane="best" departSpeed="max" from="-24235724#7" to="24496210#0"/>
    <trip id="veh175" type="veh_passenger" depart="1381.20" departLane="best" from="24496198#1" to="273005768#0"/>
    <trip id="veh176" type="veh_passenger" depart="1389.09" departLane="best" departSpeed="max" from="-124847247" to="100289827"/>
    <trip id="veh178" type="veh_passenger" depart="1404.88" departLane="best" from="-288069073#2" to="530526777#2"/>
    <trip id="veh179" type="veh_passenger" depart="1412.77" departLane="best" from="100289783#1" to="288069073#5"/>
    <trip id="veh182" type="veh_passenger" depart="1436.45" departLane="best" from="24235722#1" to="1017430416#1"/>
    <trip id="veh183" type="veh_passenger" depart="1444.34" departLane="best" departSpeed="max" from="260074348" to="124847263#0"/>
    <trip id="veh186" type="veh_passenger" depart="1468.02" departLane="best" from="-288069073#1" to="-24235717#0"/>
    <trip id="veh187" type="veh_passenger" depart="1475.91" departLane="best" departSpeed="max" from="24496219" to="124847242"/>
    <trip id="veh188" type="veh_passenger" depart="1483.80" departLane="best" from="-100289893#1" to="-53478584#2"/>
    <trip id="veh190" type="veh_passenger" depart="1499.59" departLane="best" from="-100289893#1" to="-124847246"/>
    <trip id="veh191" type="veh_passenger" depart="1507.48" departLane="best" from="-24962020#5" to="24496199#7"/>
    <trip id="veh192" type="veh_passenger" depart="1515.37" departLane="best" from="24235716#0" to="-100289866#0"/>
    <trip id="veh196" type="veh_passenger" depart="1546.94" departLane="best" from="27936471#1" to="260074351"/>
    <trip id="veh198" type="veh_passenger" depart="1562.73" departLane="best" departSpeed="max" from="-53478700" to="25661063#3"/>
    <trip id="veh201" type="veh_passenger" depart="1586.41" departLane="best" from="-100289894#5" to="24037257#0"/>
    <trip id="veh202" type="veh_passenger" depart="1594.30" departLane="best" departSpeed="max" from="-53478658#1" to="24496192#3"/>
    <trip id="veh204" type="veh_passenger" depart="1610.08" departLane="best" departSpeed="max" from="100289802#0" to="-124847241"/>
    <trip id="veh205" type="veh_passenger" depart="1617.98" departLane="best" from="-124847277#3" to="-100289784#0"/>
    <trip id="veh207" type="veh_passenger" depart="1633.76" departLane="best" from="-100289812#1" to="24235716#0"/>
    <trip id="veh208" type="veh_passenger" depart="1641.65" departLane="best" from="-124847277#1" to="100289883#1"/>
    <trip id="veh209" type="veh_passenger" depart="1649.55" departLane="best" departSpeed="max" from="-100289875" to="100289768#1"/>
    <trip id="veh211" type="veh_passenger" depart="1665.33" departLane="best" from="24496210#1" to="100289768#1"/>
    <trip id="veh212" type="veh_passenger" depart="1673.22" departLane="best" from="24496199#0" to="529197385"/>
    <trip id="veh213" type="veh_passenger" depart="1681.12" departLane="best" from="-100289780" to="124847260#0"/>
    <trip id="veh218" type="veh_passenger" depart="1720.58" departLane="best" from="-100289784#0" to="124847277#3"/>
    <trip id="veh219" type="veh_passenger" depart="1728.47" departLane="best" from="1017430415" to="24496221#1"/>
    <trip id="veh220" type="veh_passenger" depart="1736.36" departLane="best" from="24235713#1" to="260074351"/>
    <trip id="veh223" type="veh_passenger" depart="1760.04" departLane="best" departSpeed="max" from="-124847247" to="-100289780"/>
    <trip id="veh224" type="veh_passenger" depart="1767.93" departLane="best" from="-53478596#2" to="24496192#3"/>
    <trip id="veh226" type="veh_passenger" depart="1783.72" departLane="best" from="24496210#1" to="24235713#0"/>
    <trip id="veh227" type="veh_passenger" depart="1791.61" departLane="best" departSpeed="max" from="-124847242" to="273005768#1"/>
    <trip id="veh232" type="veh_passenger" depart="1831.07" departLane="best" from="273005768#1" to="31265883#2"/>
    <trip id="veh234" type="veh_passenger" depart="1846.86" departLane="best" from="124847280#4" to="-47160361#1"/>
    <trip id="veh235" type="veh_passenger" depart="1854.75" departLane="best" from="24235716#1" to="100289836"/>
    <trip id="veh237" type="veh_passenger" depart="1870.54" departLane="best" departSpeed="max" from="-31265883#2" to="288069074"/>
    <trip id="veh238" type="veh_passenger" depart="1878.43" departLane="best" from="100289774#3" to="24962020#3"/>
    <trip id="veh239" type="veh_passenger" depart="1886.32" departLane="best" from="-31265883#1" to="530534025#1"/>
    <trip id="veh240" type="veh_passenger" depart="1894.22" departLane="best" departSpeed="max" from="260074348" to="100289894#1"/>
    <trip id="veh242" type="veh_passenger" depart="1910.00" departLane="best" from="100289797#0" to="24037263#0"/>
    <trip id="veh245" type="veh_passenger" depart="1933.68" departLane="best" departSpeed="max" from="-24496221#13" to="288069073#4"/>
    <trip id="veh246" type="veh_passenger" depart="1941.57" departLane="best" departSpeed="max" from="-53478658#1" to="53478596#2"/>
    <trip id="veh248" type="veh_passenger" depart="1957.36" departLane="best" from="-100289894#6" to="24235715"/>
    <trip id="veh249" type="veh_passenger" depart="1965.25" departLane="best" from="100289827" to="25661063#3"/>
    <trip id="veh250" type="veh_passenger" depart="1973.14" departLane="best" from="24496210#1" to="-24235720#2"/>
    <trip id="veh251" type="veh_passenger" depart="1981.03" departLane="best" from="100289829" to="27936471#2"/>
    <trip id="veh254" type="veh_passenger" depart="2004.71" departLane="best" from="-100289887#1" to="100289827"/>
    <trip id="veh256" type="veh_passenger" depart="2020.50" departLane="best" from="24235714#1" to="-47160361#1"/>
    <trip id="veh258" type="veh_passenger" depart="2036.28" departLane="best" from="25661063#1" to="260074351"/>
    <trip id="veh259" type="veh_passenger" depart="2044.17" departLane="best" from="-24235724#0" to="24496199#7"/>
    <trip id="veh260" type="veh_passenger" depart="2052.07" departLane="best" from="100289818" to="24510985#0"/>
    <trip id="veh261" type="veh_passenger" depart="2059.96" departLane="best" from="829324433#2" to="124847242"/>
    <trip id="veh262" type="veh_passenger" depart="2067.85" departLane="best" departSpeed="max" from="-24235724#7" to="24496221#9"/>
    <trip id="veh263" type="veh_passenger" depart="2075.74" departLane="best" from="-24235717#0" to="-100289777"/>
    <trip id="veh264" type="veh_passenger" depart="2083.64" departLane="best" from="-100289887#3" to="530494956"/>
    <trip id="veh266" type="veh_passenger" depart="2099.42" departLane="best" from="24235713#0" to="-124847241"/>
    <trip id="veh267" type="veh_passenger" depart="2107.31" departLane="best" from="-31265883#1" to="100289894#6"/>
    <trip id="veh268" type="veh_passenger" depart="2115.21" departLane="best" from="47160361#2" to="124847280#6"/>
    <trip id="veh269" type="veh_passenger" depart="2123.10" departLane="best" departSpeed="max" from="100289802#0" to="100289857"/>
    <trip id="veh270" type="veh_passenger" depart="2130.99" departLane="best" departSpeed="max" from="25661068" to="100289783#2"/>
    <trip id="veh271" type="veh_passenger" depart="2138.88" departLane="best" departSpeed="max" from="-100289887#4" to="-24235720#0"/>
    <trip id="veh272" type="veh_passenger" depart="2146.78" departLane="best" departSpeed="max" from="-100289875" to="-124847266#0"/>
    <trip id="veh273" type="veh_passenger" depart="2154.67" departLane="best" from="1017430415" to="-53478678#2"/>
    <trip id="veh275" type="veh_passenger" depart="2170.46" departLane="best" departSpeed="max" from="24496219" to="24037257#2"/>
    <trip id="veh276" type="veh_passenger" depart="2178.35" departLane="best" departSpeed="max" from="24510986#0" to="24496221#7"/>
    <trip id="veh277" type="veh_passenger" depart="2186.24" departLane="best" departSpeed="max" from="100289777" to="53478360#1"/>
    <trip id="veh278" type="veh_passenger" depart="2194.13" departLane="best" departSpeed="max" from="76842202#0" to="53478731#1"/>
    <trip id="veh279" type="veh_passenger" depart="2202.03" departLane="best" from="-124847277#2" to="24037263#0"/>
    <trip id="veh281" type="veh_passenger" depart="2217.81" departLane="best" departSpeed="max" from="-24496221#13" to="-24496199#0"/>
    <trip id="veh283" type="veh_passenger" depart="2233.60" departLane="best" from="24037262" to="-100289884#1"/>
    <trip id="veh284" type="veh_passenger" depart="2241.49" departLane="best" from="-100289765#1" to="100289875"/>
    <trip id="veh285" type="veh_passenger" depart="2249.38" departLane="best" from="124847240" to="-53478596#2"/>
    <trip id="veh286" type="veh_passenger" depart="2257.27" departLane="best" from="-24962020#7" to="24496221#11"/>
    <trip id="veh287" type="veh_passenger" depart="2265.17" departLane="best" from="24235714#1" to="100289875"/>
    <trip id="veh292" type="veh_passenger" depart="2304.63" departLane="best" departSpeed="max" from="260074348" to="-100289880#0"/>
    <trip id="veh294" type="veh_passenger" depart="2320.41" departLane="best" from="24496198#0" to="124847280#2"/>
    <trip id="veh297" type="veh_passenger" depart="2344.09" departLane="best" from="100289830#3" to="100289887#3"/>
    <trip id="veh298" type="veh_passenger" depart="2351.98" departLane="best" departSpeed="max" from="-53478621" to="-25661068"/>
    <trip id="veh300" type="veh_passenger" depart="2367.77" departLane="best" departSpeed="max" from="260074350" to="124847280#6"/>
    <trip id="veh302" type="veh_passenger" depart="2383.55" departLane="best" from="24037254#2" to="-47160361#0"/>
    <trip id="veh303" type="veh_passenger" depart="2391.45" departLane="best" from="-100289857" to="25661063#3"/>
    <trip id="veh304" type="veh_passenger" depart="2399.34" departLane="best" departSpeed="max" from="100289802#0" to="24235723#1"/>
    <trip id="veh308" type="veh_passenger" depart="2430.91" departLane="best" departSpeed="max" from="-53478628" to="24496199#5"/>
    <trip id="veh310" type="veh_passenger" depart="2446.69" departLane="best" from="25661063#1" to="124847263#1"/>
    <trip id="veh314" type="veh_passenger" depart="2478.27" departLane="best" departSpeed="max" from="76842202#0" to="24235724#7"/>
    <trip id="veh315" type="veh_passenger" depart="2486.16" departLane="best" from="100289894#1" to="100289802#2"/>
    <trip id="veh317" type="veh_passenger" depart="2501.94" departLane="best" from="-24496199#5" to="24235711#3"/>
    <trip id="veh318" type="veh_passenger" depart="2509.84" departLane="best" from="24496210#0" to="-24235720#0"/>
    <trip id="veh319" type="veh_passenger" depart="2517.73" departLane="best" from="100289894#7" to="53478731#2"/>
    <trip id="veh320" type="veh_passenger" depart="2525.62" departLane="best" departSpeed="max" from="100289777" to="24496216"/>
    <trip id="veh324" type="veh_passenger" depart="2557.19" departLane="best" from="76842202#1" to="53478678#1"/>
    <trip id="veh326" type="veh_passenger" depart="2572.98" departLane="best" departSpeed="max" from="260074348" to="1017430414"/>
    <trip id="veh327" type="veh_passenger" depart="2580.87" departLane="best" from="24235722#0" to="1134259906"/>
    <trip id="veh328" type="veh_passenger" depart="2588.76" departLane="best" departSpeed="max" from="-31265883#2" to="529197387#1"/>
    <trip id="veh330" type="veh_passenger" depart="2604.55" departLane="best" from="1017426831" to="-100289774#1"/>
    <trip id="veh331" type="veh_passenger" depart="2612.44" departLane="best" from="529197387#3" to="53478381#1"/>
    <trip id="veh332" type="veh_passenger" depart="2620.33" departLane="best" departSpeed="max" from="-31265883#2" to="27936471#2"/>
    <trip id="veh333" type="veh_passenger" depart="2628.22" departLane="best" from="100289765#0" to="53478740"/>
    <trip id="veh334" type="veh_passenger" depart="2636.12" departLane="best" from="-100289865#1" to="31265883#2"/>
    <trip id="veh335" type="veh_passenger" depart="2644.01" departLane="best" from="-530494958" to="-53478647"/>
    <trip id="veh337" type="veh_passenger" depart="2659.79" departLane="best" from="100289829" to="-124847266#0"/>
    <trip id="veh339" type="veh_passenger" depart="2675.58" departLane="best" from="1017426836" to="124847260#1"/>
    <trip id="veh341" type="veh_passenger" depart="2691.36" departLane="best" from="-24235724#6" to="24037268#0"/>
    <trip id="veh342" type="veh_passenger" depart="2699.26" departLane="best" from="-24496221#3" to="-100289823"/>
    <trip id="veh343" type="veh_passenger" depart="2707.15" departLane="best" from="24496192#1" to="24496221#11"/>
    <trip id="veh344" type="veh_passenger" depart="2715.04" departLane="best" from="25661063#0" to="100289774#3"/>
    <trip id="veh346" type="veh_passenger" depart="2730.83" departLane="best" from="665481282#1" to="1017426836"/>
    <trip id="veh347" type="veh_passenger" depart="2738.72" departLane="best" from="-100289832#0" to="1017430416#1"/>
    <trip id="veh349" type="veh_passenger" depart="2754.50" departLane="best" from="529197385" to="100289857"/>
    <trip id="veh350" type="veh_passenger" depart="2762.40" departLane="best" from="237460520" to="-124847280#0"/>
    <trip id="veh352" type="veh_passenger" depart="2778.18" departLane="best" departSpeed="max" from="-53478658#1" to="24496199#5"/>
    <trip id="veh354" type="veh_passenger" depart="2793.97" departLane="best" from="27936471#0" to="53478360#1"/>
    <trip id="veh356" type="veh_passenger" depart="2809.75" departLane="best" departSpeed="max" from="-100289887#4" to="24235714#0"/>
    <trip id="veh357" type="veh_passenger" depart="2817.65" departLane="best" from="53478678#1" to="829324434"/>
    <trip id="veh358" type="veh_passenger" depart="2825.54" departLane="best" departSpeed="max" from="-124847242" to="24235715"/>
    <trip id="veh360" type="veh_passenger" depart="2841.32" departLane="best" departSpeed="max" from="-124847277#4" to="124847247"/>